Circuit: * C:\Users\Sinetemba Klaus\Downloads\Assessment_6_LTspice_Template\Assessment_6_LTspice_Template\E344_19872887_A6.asc

Direct Newton iteration failed to find .op point.  (Use ".option noopiter" to skip.)
Starting Gmin stepping
Gmin = 10
Gmin = 1.07374
Gmin = 0.115292
Gmin = 0.0123794
Gmin = 0.00132923
Gmin = 0.000142725
Gmin = 1.5325e-005
Gmin = 1.6455e-006
Gmin = 1.76685e-007
Gmin = 1.89714e-008
vernier = 0.5
vernier = 0.25
vernier = 0.125
Gmin = 1.10812e-008
vernier = 0.0625
vernier = 0.0833333
Gmin = 9.73786e-009
vernier = 0.111111
vernier = 0.148148
Gmin = 7.37174e-009
vernier = 0.197531
Gmin = 4.77298e-009
vernier = 0.263374
vernier = 0.351165
Gmin = 2.32513e-009
vernier = 0.46822
vernier = 0.624294
Gmin = 7.56723e-010
vernier = 0.832392
Gmin = 1.36264e-010
vernier = 1
Gmin = 1.46313e-011
Gmin = 1.57102e-012
Gmin = 1.68687e-013
Gmin = 0
Gmin stepping succeeded in finding the operating point.


Date: Mon Oct 04 07:30:12 2021
Total elapsed time: 3.644 seconds.

tnom = 27
temp = 27
method = modified trap
totiter = 166210
traniter = 165179
tranpoints = 82588
accept = 77961
rejected = 4627
matrix size = 32
fillins = 55
solver = Normal
Thread vector: 14.5/10.2[3] 4.7/4.7[1] 2.2/3.8[1] 0.1/2.2[1]  2592/500
Matrix Compiler1: 5.33 KB object code size  1.6/1.1/[0.5]
Matrix Compiler2: 3.49 KB object code size  0.4/0.9/[0.3]

