Circuit: * C:\Users\Sinetemba Klaus\Documents\Engineering\2021\Design (E) 344\Assessment_3_LTspice_Template\E344_19872887_A3.asc

Early termination of direct N-R iteration.
Direct Newton iteration failed to find .op point.  (Use ".option noopiter" to skip.)
Starting Gmin stepping
Gmin = 10
Gmin = 1.07374
Gmin = 0.115292
Gmin = 0.0123794
Gmin = 0.00132923
Gmin = 0.000142725
Gmin = 1.5325e-005
Gmin = 1.6455e-006
Gmin = 1.76685e-007
Gmin = 1.89714e-008
vernier = 0.5
vernier = 0.25
vernier = 0.125
Gmin = 1.10812e-008
vernier = 0.0625
vernier = 0.0833333
Gmin = 9.73786e-009
vernier = 0.111111
vernier = 0.148148
Gmin = 7.37174e-009
vernier = 0.197531
Gmin = 4.77298e-009
vernier = 0.263374
vernier = 0.351165
Gmin = 2.32513e-009
vernier = 0.46822
vernier = 0.624294
Gmin = 7.56723e-010
vernier = 0.832392
Gmin = 1.36264e-010
vernier = 1
Gmin = 1.46313e-011
Gmin = 1.57102e-012
Gmin = 1.68687e-013
Gmin = 0
Gmin stepping succeeded in finding the operating point.


Date: Mon Aug 30 07:47:57 2021
Total elapsed time: 0.963 seconds.

tnom = 27
temp = 27
method = modified trap
totiter = 7541
traniter = 6462
tranpoints = 2461
accept = 2068
rejected = 393
matrix size = 56
fillins = 124
solver = Normal
Thread vector: 54.0/39.4[4] 10.9/13.7[1] 6.1/8.7[1] 0.3/12.6[1]  2592/500
Matrix Compiler1: 12.52 KB object code size  7.0/4.3/[2.0]
Matrix Compiler2: 6.82 KB object code size  1.7/1.9/[0.4]

