Circuit: * C:\Users\Sinetemba Klaus\Documents\Engineering\2021\Design (E) 344\Week 4\Assessment_4_LTspice_Template\Assessment_4_LTspice_Template\E344_19872887_A4.asc

WARNING: Node U1:N007 is floating.

Direct Newton iteration failed to find .op point.  (Use ".option noopiter" to skip.)
Starting Gmin stepping
Gmin = 10
Gmin = 1.07374
Gmin = 0.115292
Gmin = 0.0123794
Gmin = 0.00132923
Gmin = 0.000142725
Gmin = 1.5325e-005
Gmin = 1.6455e-006
Gmin = 1.76685e-007
Gmin = 1.89714e-008
Gmin = 2.03704e-009
Gmin = 2.18725e-010
Gmin = 2.34854e-011
Gmin = 2.52173e-012
Gmin = 2.70769e-013
Gmin = 0
Gmin stepping succeeded in finding the operating point.


Date: Mon Sep 06 04:00:14 2021
Total elapsed time: 1.226 seconds.

tnom = 27
temp = 27
method = modified trap
totiter = 64450
traniter = 64060
tranpoints = 32031
accept = 32031
rejected = 0
matrix size = 18
fillins = 29
solver = Normal
Matrix Compiler1: 3.95 KB object code size  0.6/0.4/[0.2]
Matrix Compiler2: off  [0.3]/0.3/0.3

